Circuit: * C:\Users\Ryan\Google Drive\Projects\3PO\Simulation\Spice\desaturation.asc

Direct Newton iteration for .op point succeeded.

Date: Sat May 15 18:51:59 2021
Total elapsed time: 0.086 seconds.

tnom = 27
temp = 27
method = modified trap
totiter = 2097
traniter = 2092
tranpoints = 1047
accept = 1045
rejected = 2
matrix size = 8
fillins = 0
solver = Alternate
Matrix Compiler1: 286 bytes object code size  0.1/0.1/[0.1]
Matrix Compiler2: 532 bytes object code size  0.1/0.2/[0.1]

